--Link1--
%nproc=10
%chk=UNK
%mem=1500MB
# B3LYP/6-311G(d,p) em=GD3BJ scrf(solvent=water) opt freq

remark line goes here

0   1
    C    6.4002000000       -3.3077000000       -4.7924000000     
    C    5.8332000000       -2.8048000000       -3.6225000000     
    C    6.6423000000       -2.1744000000       -2.6804000000     
    C    8.0116000000       -2.0522000000       -2.9162000000     
    C    8.5778000000       -2.5559000000       -4.0872000000     
    C    7.7685000000       -3.1863000000       -5.0292000000     
   Cl    9.0147000000       -1.2709000000       -1.7488000000     
    H    5.7728000000       -3.7966000000       -5.5230000000     
    H    4.7719000000       -2.9034000000       -3.4474000000     
    H    6.2082000000       -1.7829000000       -1.7722000000     
    H    9.6387000000       -2.4589000000       -4.2655000000     
    H    8.1994000000       -3.5788000000       -5.9383000000     


